LAMMPS (3 Mar 2020)

# Mo, bcc
# # ---------- Initialize Simulation ---------------------
clear
units           metal
dimension       3
boundary        p p p
atom_style      atomic
atom_modify     map array

# # ---------- Create Atoms ---------------------
lattice         bcc 4.00
Lattice spacing in x,y,z = 4 4 4
region          box block 0 5 0 5 0 5 units lattice
create_box      1 box
Created orthogonal box = (0 0 0) to (20 20 20)
create_atoms    1 box
Created 250 atoms

# # ---------- Define Interatomic Potential ---------------------
pair_style      eam/alloy
pair_coeff      * * Mo_Zhou04.eam.alloy Mo
Reading potential file Mo_Zhou04.eam.alloy with DATE: 2018-03-30
neighbor        2.0 bin
neigh_modify    delay 10 check yes

#  # ---------- Define Settings ---------------------
compute         eng all pe/atom
compute         eatoms all reduce sum c_eng

#  # ---------- Run Minimization ---------------------
reset_timestep  0
fix             1 all box/relax iso 0.0 vmax 0.001
thermo          10
thermo_style    custom step pe lx ly lz press pxx pyy pzz c_eatoms
min_style       cg
minimize        1e-25 1e-25 5000 10000
  update every 1 steps, delay 0 steps, check yes
Step PotEng Lx Ly Lz Press Pxx Pyy Pzz c_eatoms
0   -490.30867           20           20           20   -530575.56   -530575.56   -530575.56   -530575.56   -490.30867
Loop time of 0.100575 on 1 procs for 218 steps with 250 atoms

Minimization stats:
  Stopping criterion = energy tolerance
  Energy initial, next-to-last, final =
  Force two-norm initial, final = 7947.82 5.18933e-12
  Force max component initial, final = 7947.82 1.72854e-12
  Final line search alpha, max atom move = 1 1.72854e-12
  Iterations, force evaluations = 218 224

unfix           1

#  # ----------- Run simulation of bcc phase of Mo --------------------
reset_timestep  0
thermo          10
thermo_style    custom step lx ly lz press pxx pyy pzz pe temp
thermo_modify   format 2 %22.18f
velocity        all create 300 12345 mom yes rot no
dump            1 all custom 50 dumpPureMoBcc.out id type x y z
fix             2 all npt temp 300 300 1 iso 0 0 1 drag 1
run             9999
Step Lx Ly Lz Press Pxx Pyy Pzz PotEng Temp
0  15.750691427550595591    15.750691    15.750691    2639.4016    2590.2474    2562.6356    2765.3216   -1702.5009          300
Averages over the last 501 of 1001 rows, steps 5000 to 9999:
Lx Ly Lz Press Pxx Pyy Pzz PotEng Temp
15.7683 15.7683 15.7683 -13.3756 -114.449 80.2234 -5.90164 -1693.75 268.903
Loop time of 5.26251 on 1 procs for 9999 steps with 250 atoms

#-------------------------------------------------
