LAMMPS (3 Mar 2020)
# Mo, fcc

# # ---------- Initialize Simulation ---------------------
clear
units           metal
dimension       3
boundary        p p p
atom_style      atomic
atom_modify     map array

# # ---------- Create Atoms ---------------------
lattice         fcc 4.00
Lattice spacing in x,y,z = 4 4 4
region          box block 0 5 0 5 0 5 units lattice
create_box      1 box
Created orthogonal box = (0 0 0) to (20 20 20)
create_atoms    1 box
Created 500 atoms

# # ---------- Define Interatomic Potential ---------------------
pair_style      eam/alloy
pair_coeff      * * Mo_Zhou04.eam.alloy Mo
Reading potential file Mo_Zhou04.eam.alloy with DATE: 2018-03-30
neighbor        2.0 bin
neigh_modify    delay 10 check yes

#  # ---------- Define Settings ---------------------
compute         eng all pe/atom
compute         eatoms all reduce sum c_eng

#  # ---------- Run Minimization ---------------------
reset_timestep  0
fix             1 all box/relax iso 0.0 vmax 0.001
thermo          10
thermo_style    custom step pe lx ly lz press pxx pyy pzz c_eatoms
min_style       cg
minimize        1e-25 1e-25 5000 10000
  update every 1 steps, delay 0 steps, check yes
Step PotEng Lx Ly Lz Press Pxx Pyy Pzz c_eatoms
0   -3303.2277           20           20           20    111293.35    111293.35    111293.35    111293.35   -3303.2277
Loop time of 0.0223419 on 4 procs for 35 steps with 500 atoms

Minimization stats:
  Stopping criterion = energy tolerance
  Energy initial, next-to-last, final =
  Force two-norm initial, final = 1667.13 8.18983e-12
  Force max component initial, final = 1667.13 8.02041e-12
  Final line search alpha, max atom move = 1 8.02041e-12
  Iterations, force evaluations = 35 41

unfix           1

#  # ----------- Run simulation of fcc phase of Mo --------------------
reset_timestep  0
thermo          10
thermo_style    custom step lx ly lz press pxx pyy pzz pe temp
thermo_modify   format 2 %22.18f
velocity        all create 600 12345 mom yes rot no
dump            1 all custom 50 dumpMoFcc.out id type x y z

fix             2 all nvt temp 600.0 600.0 100.0

run             9999
Step Lx Ly Lz Press Pxx Pyy Pzz PotEng Temp
0  20.596274644052037672    20.596275    20.596275    4731.1804     4656.758    4827.5031    4709.2802   -3328.0429          600
Averages over the last 501 of 1001 rows, steps 5000 to 9999:
Lx Ly Lz Press Pxx Pyy Pzz PotEng Temp
20.5963 20.5963 20.5963 -9318.66 -9172.04 -9388.73 -9395.21 -3309.13 307.681
Loop time of 3.05495 on 4 procs for 9999 steps with 500 atoms

#-------------------------------------------------
