LAMMPS (3 Mar 2020)
# amorphous phase of Mo

# Initialize Simulation ---------------------
clear
units           metal
dimension       3
boundary        p p p
atom_style      atomic
atom_modify     map array

# Create Atoms ---------------------
lattice         bcc 4.00
Lattice spacing in x,y,z = 4 4 4
region          box block 0 5 0 5 0 5 units lattice
create_box      1 box
Created orthogonal box = (0 0 0) to (20 20 20)
create_atoms    1 box
Created 250 atoms

# Define Interatomic Potential ---------------------
pair_style      eam/alloy
pair_coeff      * * Mo_Zhou04.eam.alloy Mo
Reading potential file Mo_Zhou04.eam.alloy with DATE: 2018-03-30
neighbor        2.0 bin
neigh_modify    delay 10 check yes

# Setting THERMO
reset_timestep  0
thermo          10
thermo_style    custom step lx ly lz press pe temp

# Run Minimization
variable        targetPressure equal 0.0

fix             1 all                                                       box/relax iso 0 vmax 0.001
min_style       cg
minimize        1e-25 1e-25 5000 10000
  update every 1 steps, delay 0 steps, check yes
Step Lx Ly Lz Press PotEng Temp
0           20           20           20   -530575.56   -490.30867            0
Loop time of 0.0502108 on 4 procs for 225 steps with 250 atoms

Minimization stats:
  Stopping criterion = energy tolerance
  Energy initial, next-to-last, final =
  Force two-norm initial, final = 7947.82 9.38431e-12
  Force max component initial, final = 7947.82 9.26823e-12
  Final line search alpha, max atom move = 1 9.26823e-12
  Iterations, force evaluations = 225 238

unfix           1

# Setting DUMP
reset_timestep  0
variable        dumpInterval equal 25
dump            1 all custom 25 dump.out id type x y z

# Run simulation
## melt Mo-bcc
variable        initTemp        equal 300
variable        finalTemp       equal 6000
variable        doubleInitTemp  equal 2*300

velocity        all create 600 12345 mom yes rot yes

fix             2 all                                                   nvt                                                     temp 300 6000 $(100.0*dt)
fix             2 all                                                   nvt                                                     temp 300 6000 0.10000000000000000555

run             40000
Step Lx Ly Lz Press PotEng Temp
0    15.750691    15.750691    15.750691    5278.8031   -1702.5009          600
Averages over the last 2001 of 4001 rows, steps 20000 to 40000:
Lx Ly Lz Press PotEng Temp
15.7507 15.7507 15.7507 168087 -1534.02 4551.76
Loop time of 7.65334 on 4 procs for 40000 steps with 250 atoms

unfix           2

## quickly cool down melted Mo
variable        finalAmorfTemp equal 300.0
fix             3 all                                                           nvt                                                             temp 6000 300 $(1.0*dt)
fix             3 all                                                           nvt                                                             temp 6000 300 0.0010000000000000000208

run             20000
Step Lx Ly Lz Press PotEng Temp
40000    15.750691    15.750691    15.750691       284054   -1400.2301    5590.6097
Averages over the last 1001 of 2001 rows, steps 50000 to 60000:
Lx Ly Lz Press PotEng Temp
15.7507 15.7507 15.7507 132943 -1573.53 1726
Loop time of 5.37364 on 4 procs for 20000 steps with 250 atoms

unfix           3

## equivibration
fix             4 all                                                   nve

run             10000
Step Lx Ly Lz Press PotEng Temp
60000    15.750691    15.750691    15.750691    95778.376   -1625.2148    289.40438
Averages over the last 501 of 1001 rows, steps 65000 to 70000:
Lx Ly Lz Press PotEng Temp
15.7507 15.7507 15.7507 94891.4 -1625.27 291.005
Loop time of 2.73299 on 4 procs for 10000 steps with 250 atoms

unfix           4

#-------------------------------------------------
