LAMMPS (3 Mar 2020)

# Mo, bcc
# # ---------- Initialize Simulation ---------------------
clear
units           metal
dimension       3
boundary        p p p
atom_style      atomic
atom_modify     map array

# # ---------- Create Atoms ---------------------
lattice         bcc 4.00
Lattice spacing in x,y,z = 4 4 4
region          box block 0 5 0 5 0 5 units lattice
create_box      1 box
Created orthogonal box = (0 0 0) to (20 20 20)
create_atoms    1 box
Created 250 atoms

# # ---------- Define Interatomic Potential ---------------------
pair_style      eam/alloy
pair_coeff      * * Mo_Zhou04.eam.alloy Mo
Reading potential file Mo_Zhou04.eam.alloy with DATE: 2018-03-30
neighbor        2.0 bin
neigh_modify    delay 10 check yes

#  # ---------- Define Settings ---------------------
compute         eng all pe/atom
compute         eatoms all reduce sum c_eng

#  # ---------- Run Minimization ---------------------
reset_timestep  0
fix             1 all box/relax iso 0.0 vmax 0.001
thermo          10
thermo_style    custom step pe lx ly lz press pxx pyy pzz c_eatoms
min_style       cg
minimize        1e-25 1e-25 5000 10000
  update every 1 steps, delay 0 steps, check yes
Step PotEng Lx Ly Lz Press Pxx Pyy Pzz c_eatoms
0   -490.30867           20           20           20   -530575.56   -530575.56   -530575.56   -530575.56   -490.30867
Loop time of 0.205828 on 2 procs for 218 steps with 250 atoms

Minimization stats:
  Stopping criterion = energy tolerance
  Energy initial, next-to-last, final =
  Force two-norm initial, final = 7947.82 5.18933e-12
  Force max component initial, final = 7947.82 1.72854e-12
  Final line search alpha, max atom move = 1 1.72854e-12
  Iterations, force evaluations = 218 224

#  # ----------- Run simulation of bcc phase of Mo --------------------
reset_timestep  0
thermo          10
thermo_style    custom step lx ly lz press pxx pyy pzz pe temp
thermo_modify   format 2 %22.18f
velocity        all create 300 12345 mom yes rot no
dump            1 all custom 50 dumpMoBcc5.out id type x y z
fix             2 all npt temp 300 300 1 iso 0 0 1 drag 1
run             99999
Step Lx Ly Lz Press Pxx Pyy Pzz PotEng Temp
0  15.750691427550595591    15.750691    15.750691    2639.4016    2590.2474    2562.6356    2765.3216   -1702.5009          300
Averages over the last 58 of 115 rows, steps 570 to 1140:
Lx Ly Lz Press Pxx Pyy Pzz PotEng Temp
15.7612 15.7612 15.7612 23.4446 -81.2221 82.8561 -1.73141e+07 -1697.26 162.276
    1150  15.759535584175736744    15.759536    15.759536    1206.5802    1154.5856    12...3962    1255.7587    -1696.343     144.0733
    1450  15.763523861005069193    15.763524    15.763524   -456.29984   -6...72852   -517.45264   -220.71836   -1696.7078    166.20747
    1750  15.762046146229845789    15.762046    15.762046   -0.0.97094   -374.99003    11.627955   -329.55076   -1697.1171    189.98197
    6830  15.767947975645601133    15.767948    15.767948   -519.87431   -455.52185   -932.02345  --172.07764   -1695.2277    302.60282
   62140  15.772159769422298581     15.77216     15.77216   -1319.8561    -1839.882   -899.89717   -1219.7891  --1693.0308     309.7692
   68720  15.768570468204694990     15.76857     15.76857    762.88977    119..3907    487.96383    608.31473   -1692.5995    296.88414
   69320  15.764887472235422194    15.764887    1..764887    2332.6921    1999.4824    2151.0356    2847.5582    -1692.774     302.1645
   70810  15.769454724217904840    15.769455    15.769455   -33.135209   -324.27271    569.52197   -344.65488   -169..9317     307.0886
   74400  15.770460051474032070     15.77046     15.77046   -194.53426    88.324421  --218.84529   -453.08192   -1692.6557    298.47611
Loop time of 61.2661 on 2 procs for 99999 steps with 250 atoms

#-------------------------------------------------
:01
